data_CELLMUNCHER


_pd_phase_name                         'Super Cell'
_cell_length_a                         346.55 
_cell_length_b                         346.55 
_cell_length_c                         346.55 
_cell_angle_alpha                      90.0000 
_cell_angle_beta                       90.0000 
_cell_angle_gamma                      90.0000 
_symmetry_space_group_name_H-M         'P 1'
_symmetry_Int_Tables_number            1

loop_
_symmetry_equiv_pos_as_xyz
   'x, y, z'


loop_
   _atom_site_label
   _atom_site_occupancy
   _atom_site_fract_x
   _atom_site_fract_y
   _atom_site_fract_z
   _atom_site_thermal_displace_type
   _atom_site_B_iso_or_equiv
   _atom_site_type_symbol
 Au   1.0000  0.4428  0.4953  0.5843   Biso    0.0050 Au
 Au   1.0000  0.4622  0.5166  0.5838   Biso    0.0050 Au
 Au   1.0000  0.4816  0.5380  0.5834   Biso    0.0050 Au
 Au   1.0000  0.5010  0.5593  0.5829   Biso    0.0050 Au
 Au   1.0000  0.4641  0.4759  0.5828   Biso    0.0050 Au
 Au   1.0000  0.4835  0.4972  0.5824   Biso    0.0050 Au
 Au   1.0000  0.5029  0.5186  0.5819   Biso    0.0050 Au
 Au   1.0000  0.5223  0.5399  0.5815   Biso    0.0050 Au
 Au   1.0000  0.4854  0.4565  0.5814   Biso    0.0050 Au
 Au   1.0000  0.5048  0.4778  0.5810   Biso    0.0050 Au
 Au   1.0000  0.5242  0.4992  0.5805   Biso    0.0050 Au
 Au   1.0000  0.5436  0.5205  0.5801   Biso    0.0050 Au
 Au   1.0000  0.5066  0.4371  0.5800   Biso    0.0050 Au
 Au   1.0000  0.5261  0.4584  0.5795   Biso    0.0050 Au
 Au   1.0000  0.5455  0.4797  0.5791   Biso    0.0050 Au
 Au   1.0000  0.5649  0.5011  0.5786   Biso    0.0050 Au
 Au   1.0000  0.4215  0.4948  0.5648   Biso    0.0050 Au
 Au   1.0000  0.4409  0.5161  0.5644   Biso    0.0050 Au
 Au   1.0000  0.4603  0.5374  0.5640   Biso    0.0050 Au
 Au   1.0000  0.4797  0.5588  0.5635   Biso    0.0050 Au
 Au   1.0000  0.4428  0.4754  0.5634   Biso    0.0050 Au
 Au   1.0000  0.4991  0.5801  0.5631   Biso    0.0050 Au
 Au   1.0000  0.4622  0.4967  0.5630   Biso    0.0050 Au
 Au   1.0000  0.4816  0.5180  0.5625   Biso    0.0050 Au
 Au   1.0000  0.5010  0.5394  0.5621   Biso    0.0050 Au
 Au   1.0000  0.4641  0.4560  0.5620   Biso    0.0050 Au
 Au   1.0000  0.5204  0.5607  0.5616   Biso    0.0050 Au
 Au   1.0000  0.4835  0.4773  0.5615   Biso    0.0050 Au
 Au   1.0000  0.5029  0.4986  0.5611   Biso    0.0050 Au
 Au   1.0000  0.5223  0.5200  0.5606   Biso    0.0050 Au
 Au   1.0000  0.4853  0.4366  0.5605   Biso    0.0050 Au
 Au   1.0000  0.5417  0.5413  0.5602   Biso    0.0050 Au
 Au   1.0000  0.5048  0.4579  0.5601   Biso    0.0050 Au
 Au   1.0000  0.5242  0.4792  0.5597   Biso    0.0050 Au
 Au   1.0000  0.5436  0.5006  0.5592   Biso    0.0050 Au
 Au   1.0000  0.5066  0.4172  0.5591   Biso    0.0050 Au
 Au   1.0000  0.5630  0.5219  0.5588   Biso    0.0050 Au
 Au   1.0000  0.5260  0.4385  0.5587   Biso    0.0050 Au
 Au   1.0000  0.5454  0.4598  0.5582   Biso    0.0050 Au
 Au   1.0000  0.5649  0.4812  0.5578   Biso    0.0050 Au
 Au   1.0000  0.5843  0.5025  0.5573   Biso    0.0050 Au
 Au   1.0000  0.4196  0.5156  0.5450   Biso    0.0050 Au
 Au   1.0000  0.4390  0.5369  0.5445   Biso    0.0050 Au
 Au   1.0000  0.4584  0.5583  0.5441   Biso    0.0050 Au
 Au   1.0000  0.4215  0.4749  0.5440   Biso    0.0050 Au
 Au   1.0000  0.4778  0.5796  0.5436   Biso    0.0050 Au
 Au   1.0000  0.4409  0.4962  0.5435   Biso    0.0050 Au
 Au   1.0000  0.4603  0.5175  0.5431   Biso    0.0050 Au
 Au   1.0000  0.4797  0.5389  0.5427   Biso    0.0050 Au
 Au   1.0000  0.4428  0.4555  0.5425   Biso    0.0050 Au
 Au   1.0000  0.4991  0.5602  0.5422   Biso    0.0050 Au
 Au   1.0000  0.4622  0.4768  0.5421   Biso    0.0050 Au
 Au   1.0000  0.5185  0.5815  0.5418   Biso    0.0050 Au
 Au   1.0000  0.4816  0.4981  0.5417   Biso    0.0050 Au
 Au   1.0000  0.5010  0.5195  0.5412   Biso    0.0050 Au
 Au   1.0000  0.4640  0.4361  0.5411   Biso    0.0050 Au
 Au   1.0000  0.5204  0.5408  0.5408   Biso    0.0050 Au
 Au   1.0000  0.4834  0.4574  0.5407   Biso    0.0050 Au
 Au   1.0000  0.5398  0.5621  0.5403   Biso    0.0050 Au
 Au   1.0000  0.5029  0.4787  0.5402   Biso    0.0050 Au
 Au   1.0000  0.5223  0.5001  0.5398   Biso    0.0050 Au
 Au   1.0000  0.4853  0.4167  0.5397   Biso    0.0050 Au
 Au   1.0000  0.5417  0.5214  0.5393   Biso    0.0050 Au
 Au   1.0000  0.5047  0.4380  0.5392   Biso    0.0050 Au
 Au   1.0000  0.5611  0.5427  0.5389   Biso    0.0050 Au
 Au   1.0000  0.5241  0.4593  0.5388   Biso    0.0050 Au
 Au   1.0000  0.5435  0.4807  0.5384   Biso    0.0050 Au
 Au   1.0000  0.5630  0.5020  0.5379   Biso    0.0050 Au
 Au   1.0000  0.5260  0.4186  0.5378   Biso    0.0050 Au
 Au   1.0000  0.5824  0.5233  0.5375   Biso    0.0050 Au
 Au   1.0000  0.5454  0.4399  0.5374   Biso    0.0050 Au
 Au   1.0000  0.5648  0.4612  0.5369   Biso    0.0050 Au
 Au   1.0000  0.5842  0.4826  0.5365   Biso    0.0050 Au
 Au   1.0000  0.4177  0.5364  0.5251   Biso    0.0050 Au
 Au   1.0000  0.4371  0.5578  0.5247   Biso    0.0050 Au
 Au   1.0000  0.4565  0.5791  0.5242   Biso    0.0050 Au
 Au   1.0000  0.4196  0.4957  0.5241   Biso    0.0050 Au
 Au   1.0000  0.4390  0.5170  0.5237   Biso    0.0050 Au
 Au   1.0000  0.4584  0.5384  0.5232   Biso    0.0050 Au
 Au   1.0000  0.4214  0.4550  0.5231   Biso    0.0050 Au
 Au   1.0000  0.4778  0.5597  0.5228   Biso    0.0050 Au
 Au   1.0000  0.4409  0.4763  0.5227   Biso    0.0050 Au
 Au   1.0000  0.4972  0.5810  0.5223   Biso    0.0050 Au
 Au   1.0000  0.4603  0.4976  0.5222   Biso    0.0050 Au
 Au   1.0000  0.4797  0.5190  0.5218   Biso    0.0050 Au
 Au   1.0000  0.4427  0.4356  0.5217   Biso    0.0050 Au
 Au   1.0000  0.4991  0.5403  0.5214   Biso    0.0050 Au
 Au   1.0000  0.4621  0.4569  0.5212   Biso    0.0050 Au
 Au   1.0000  0.5185  0.5616  0.5209   Biso    0.0050 Au
 Au   1.0000  0.4816  0.4782  0.5208   Biso    0.0050 Au
 Au   1.0000  0.5379  0.5829  0.5205   Biso    0.0050 Au
 Au   1.0000  0.5010  0.4995  0.5204   Biso    0.0050 Au
 Au   1.0000  0.4640  0.4162  0.5203   Biso    0.0050 Au
 Au   1.0000  0.5204  0.5209  0.5199   Biso    0.0050 Au
 Au   1.0000  0.4834  0.4375  0.5198   Biso    0.0050 Au
 Au   1.0000  0.5398  0.5422  0.5195   Biso    0.0050 Au
 Au   1.0000  0.5028  0.4588  0.5194   Biso    0.0050 Au
 Au   1.0000  0.5592  0.5635  0.5190   Biso    0.0050 Au
 Au   1.0000  0.5222  0.4801  0.5189   Biso    0.0050 Au
 Au   1.0000  0.5417  0.5015  0.5185   Biso    0.0050 Au
 Au   1.0000  0.5047  0.4181  0.5184   Biso    0.0050 Au
 Au   1.0000  0.5611  0.5228  0.5180   Biso    0.0050 Au
 Au   1.0000  0.5241  0.4394  0.5179   Biso    0.0050 Au
 Au   1.0000  0.5805  0.5441  0.5176   Biso    0.0050 Au
 Au   1.0000  0.5435  0.4607  0.5175   Biso    0.0050 Au
 Au   1.0000  0.5629  0.4821  0.5171   Biso    0.0050 Au
 Au   1.0000  0.5823  0.5034  0.5166   Biso    0.0050 Au
 Au   1.0000  0.5454  0.4200  0.5165   Biso    0.0050 Au
 Au   1.0000  0.5648  0.4413  0.5161   Biso    0.0050 Au
 Au   1.0000  0.5842  0.4627  0.5156   Biso    0.0050 Au
 Au   1.0000  0.4158  0.5573  0.5052   Biso    0.0050 Au
 Au   1.0000  0.4352  0.5786  0.5048   Biso    0.0050 Au
 Au   1.0000  0.4177  0.5165  0.5042   Biso    0.0050 Au
 Au   1.0000  0.4371  0.5378  0.5038   Biso    0.0050 Au
 Au   1.0000  0.4565  0.5592  0.5034   Biso    0.0050 Au
 Au   1.0000  0.4196  0.4758  0.5033   Biso    0.0050 Au
 Au   1.0000  0.4759  0.5805  0.5029   Biso    0.0050 Au
 Au   1.0000  0.4390  0.4971  0.5028   Biso    0.0050 Au
 Au   1.0000  0.4584  0.5184  0.5024   Biso    0.0050 Au
 Au   1.0000  0.4214  0.4351  0.5023   Biso    0.0050 Au
 Au   1.0000  0.4778  0.5398  0.5019   Biso    0.0050 Au
 Au   1.0000  0.4408  0.4564  0.5018   Biso    0.0050 Au
 Au   1.0000  0.4972  0.5611  0.5015   Biso    0.0050 Au
 Au   1.0000  0.4602  0.4777  0.5014   Biso    0.0050 Au
 Au   1.0000  0.5166  0.5824  0.5010   Biso    0.0050 Au
 Au   1.0000  0.4797  0.4990  0.5009   Biso    0.0050 Au
 Au   1.0000  0.4427  0.4157  0.5008   Biso    0.0050 Au
 Au   1.0000  0.4991  0.5204  0.5005   Biso    0.0050 Au
 Au   1.0000  0.4621  0.4370  0.5004   Biso    0.0050 Au
 Au   1.0000  0.5185  0.5417  0.5001   Biso    0.0050 Au
 Au   1.0000  0.4815  0.4583  0.4999   Biso    0.0050 Au
 Au   1.0000  0.5379  0.5630  0.4996   Biso    0.0050 Au
 Au   1.0000  0.5009  0.4796  0.4995   Biso    0.0050 Au
 Au   1.0000  0.5573  0.5843  0.4992   Biso    0.0050 Au
 Au   1.0000  0.5203  0.5010  0.4991   Biso    0.0050 Au
 Au   1.0000  0.4834  0.4176  0.4990   Biso    0.0050 Au
 Au   1.0000  0.5398  0.5223  0.4986   Biso    0.0050 Au
 Au   1.0000  0.5028  0.4389  0.4985   Biso    0.0050 Au
 Au   1.0000  0.5592  0.5436  0.4982   Biso    0.0050 Au
 Au   1.0000  0.5222  0.4602  0.4981   Biso    0.0050 Au
 Au   1.0000  0.5786  0.5649  0.4977   Biso    0.0050 Au
 Au   1.0000  0.5416  0.4816  0.4976   Biso    0.0050 Au
 Au   1.0000  0.5610  0.5029  0.4972   Biso    0.0050 Au
 Au   1.0000  0.5241  0.4195  0.4971   Biso    0.0050 Au
 Au   1.0000  0.5804  0.5242  0.4967   Biso    0.0050 Au
 Au   1.0000  0.5435  0.4408  0.4966   Biso    0.0050 Au
 Au   1.0000  0.5629  0.4622  0.4962   Biso    0.0050 Au
 Au   1.0000  0.5823  0.4835  0.4958   Biso    0.0050 Au
 Au   1.0000  0.5648  0.4214  0.4952   Biso    0.0050 Au
 Au   1.0000  0.5842  0.4427  0.4948   Biso    0.0050 Au
 Au   1.0000  0.4158  0.5373  0.4844   Biso    0.0050 Au
 Au   1.0000  0.4352  0.5587  0.4839   Biso    0.0050 Au
 Au   1.0000  0.4546  0.5800  0.4835   Biso    0.0050 Au
 Au   1.0000  0.4177  0.4966  0.4834   Biso    0.0050 Au
 Au   1.0000  0.4371  0.5179  0.4829   Biso    0.0050 Au
 Au   1.0000  0.4565  0.5393  0.4825   Biso    0.0050 Au
 Au   1.0000  0.4195  0.4559  0.4824   Biso    0.0050 Au
 Au   1.0000  0.4759  0.5606  0.4821   Biso    0.0050 Au
 Au   1.0000  0.4389  0.4772  0.4820   Biso    0.0050 Au
 Au   1.0000  0.4953  0.5819  0.4816   Biso    0.0050 Au
 Au   1.0000  0.4583  0.4985  0.4815   Biso    0.0050 Au
 Au   1.0000  0.4778  0.5199  0.4811   Biso    0.0050 Au
 Au   1.0000  0.4408  0.4365  0.4810   Biso    0.0050 Au
 Au   1.0000  0.4972  0.5412  0.4806   Biso    0.0050 Au
 Au   1.0000  0.4602  0.4578  0.4805   Biso    0.0050 Au
 Au   1.0000  0.5166  0.5625  0.4802   Biso    0.0050 Au
 Au   1.0000  0.4796  0.4791  0.4801   Biso    0.0050 Au
 Au   1.0000  0.5360  0.5838  0.4797   Biso    0.0050 Au
 Au   1.0000  0.4990  0.5005  0.4796   Biso    0.0050 Au
 Au   1.0000  0.4621  0.4171  0.4795   Biso    0.0050 Au
 Au   1.0000  0.5184  0.5218  0.4792   Biso    0.0050 Au
 Au   1.0000  0.4815  0.4384  0.4791   Biso    0.0050 Au
 Au   1.0000  0.5379  0.5431  0.4788   Biso    0.0050 Au
 Au   1.0000  0.5009  0.4597  0.4786   Biso    0.0050 Au
 Au   1.0000  0.5573  0.5644  0.4783   Biso    0.0050 Au
 Au   1.0000  0.5203  0.4810  0.4782   Biso    0.0050 Au
 Au   1.0000  0.5397  0.5024  0.4778   Biso    0.0050 Au
 Au   1.0000  0.5028  0.4190  0.4777   Biso    0.0050 Au
 Au   1.0000  0.5591  0.5237  0.4773   Biso    0.0050 Au
 Au   1.0000  0.5222  0.4403  0.4772   Biso    0.0050 Au
 Au   1.0000  0.5786  0.5450  0.4769   Biso    0.0050 Au
 Au   1.0000  0.5416  0.4616  0.4768   Biso    0.0050 Au
 Au   1.0000  0.5610  0.4830  0.4763   Biso    0.0050 Au
 Au   1.0000  0.5804  0.5043  0.4759   Biso    0.0050 Au
 Au   1.0000  0.5435  0.4209  0.4758   Biso    0.0050 Au
 Au   1.0000  0.5629  0.4422  0.4753   Biso    0.0050 Au
 Au   1.0000  0.5823  0.4636  0.4749   Biso    0.0050 Au
 Au   1.0000  0.4158  0.5174  0.4635   Biso    0.0050 Au
 Au   1.0000  0.4352  0.5388  0.4631   Biso    0.0050 Au
 Au   1.0000  0.4546  0.5601  0.4626   Biso    0.0050 Au
 Au   1.0000  0.4176  0.4767  0.4625   Biso    0.0050 Au
 Au   1.0000  0.4740  0.5814  0.4622   Biso    0.0050 Au
 Au   1.0000  0.4370  0.4980  0.4621   Biso    0.0050 Au
 Au   1.0000  0.4565  0.5193  0.4616   Biso    0.0050 Au
 Au   1.0000  0.4759  0.5407  0.4612   Biso    0.0050 Au
 Au   1.0000  0.4389  0.4573  0.4611   Biso    0.0050 Au
 Au   1.0000  0.4953  0.5620  0.4608   Biso    0.0050 Au
 Au   1.0000  0.4583  0.4786  0.4607   Biso    0.0050 Au
 Au   1.0000  0.5147  0.5833  0.4603   Biso    0.0050 Au
 Au   1.0000  0.4777  0.4999  0.4602   Biso    0.0050 Au
 Au   1.0000  0.4971  0.5213  0.4598   Biso    0.0050 Au
 Au   1.0000  0.4602  0.4379  0.4597   Biso    0.0050 Au
 Au   1.0000  0.5166  0.5426  0.4593   Biso    0.0050 Au
 Au   1.0000  0.4796  0.4592  0.4592   Biso    0.0050 Au
 Au   1.0000  0.5360  0.5639  0.4589   Biso    0.0050 Au
 Au   1.0000  0.4990  0.4805  0.4588   Biso    0.0050 Au
 Au   1.0000  0.5184  0.5019  0.4583   Biso    0.0050 Au
 Au   1.0000  0.4815  0.4185  0.4582   Biso    0.0050 Au
 Au   1.0000  0.5378  0.5232  0.4579   Biso    0.0050 Au
 Au   1.0000  0.5009  0.4398  0.4578   Biso    0.0050 Au
 Au   1.0000  0.5572  0.5445  0.4575   Biso    0.0050 Au
 Au   1.0000  0.5203  0.4611  0.4573   Biso    0.0050 Au
 Au   1.0000  0.5397  0.4825  0.4569   Biso    0.0050 Au
 Au   1.0000  0.5591  0.5038  0.4565   Biso    0.0050 Au
 Au   1.0000  0.5222  0.4204  0.4564   Biso    0.0050 Au
 Au   1.0000  0.5785  0.5251  0.4560   Biso    0.0050 Au
 Au   1.0000  0.5416  0.4417  0.4559   Biso    0.0050 Au
 Au   1.0000  0.5610  0.4631  0.4555   Biso    0.0050 Au
 Au   1.0000  0.5804  0.4844  0.4550   Biso    0.0050 Au
 Au   1.0000  0.4157  0.4975  0.4427   Biso    0.0050 Au
 Au   1.0000  0.4351  0.5188  0.4422   Biso    0.0050 Au
 Au   1.0000  0.4546  0.5402  0.4418   Biso    0.0050 Au
 Au   1.0000  0.4740  0.5615  0.4413   Biso    0.0050 Au
 Au   1.0000  0.4370  0.4781  0.4412   Biso    0.0050 Au
 Au   1.0000  0.4934  0.5828  0.4409   Biso    0.0050 Au
 Au   1.0000  0.4564  0.4994  0.4408   Biso    0.0050 Au
 Au   1.0000  0.4758  0.5208  0.4403   Biso    0.0050 Au
 Au   1.0000  0.4952  0.5421  0.4399   Biso    0.0050 Au
 Au   1.0000  0.4583  0.4587  0.4398   Biso    0.0050 Au
 Au   1.0000  0.5147  0.5634  0.4395   Biso    0.0050 Au
 Au   1.0000  0.4777  0.4800  0.4394   Biso    0.0050 Au
 Au   1.0000  0.4971  0.5014  0.4389   Biso    0.0050 Au
 Au   1.0000  0.5165  0.5227  0.4385   Biso    0.0050 Au
 Au   1.0000  0.4796  0.4393  0.4384   Biso    0.0050 Au
 Au   1.0000  0.5359  0.5440  0.4380   Biso    0.0050 Au
 Au   1.0000  0.4990  0.4606  0.4379   Biso    0.0050 Au
 Au   1.0000  0.5184  0.4820  0.4375   Biso    0.0050 Au
 Au   1.0000  0.5378  0.5033  0.4370   Biso    0.0050 Au
 Au   1.0000  0.5009  0.4199  0.4369   Biso    0.0050 Au
 Au   1.0000  0.5572  0.5246  0.4366   Biso    0.0050 Au
 Au   1.0000  0.5203  0.4412  0.4365   Biso    0.0050 Au
 Au   1.0000  0.5397  0.4626  0.4360   Biso    0.0050 Au
 Au   1.0000  0.5591  0.4839  0.4356   Biso    0.0050 Au
 Au   1.0000  0.5785  0.5052  0.4352   Biso    0.0050 Au
 Au   1.0000  0.4351  0.4989  0.4214   Biso    0.0050 Au
 Au   1.0000  0.4545  0.5203  0.4209   Biso    0.0050 Au
 Au   1.0000  0.4739  0.5416  0.4205   Biso    0.0050 Au
 Au   1.0000  0.4934  0.5629  0.4200   Biso    0.0050 Au
 Au   1.0000  0.4564  0.4795  0.4199   Biso    0.0050 Au
 Au   1.0000  0.4758  0.5008  0.4195   Biso    0.0050 Au
 Au   1.0000  0.4952  0.5222  0.4190   Biso    0.0050 Au
 Au   1.0000  0.5146  0.5435  0.4186   Biso    0.0050 Au
 Au   1.0000  0.4777  0.4601  0.4185   Biso    0.0050 Au
 Au   1.0000  0.4971  0.4814  0.4181   Biso    0.0050 Au
 Au   1.0000  0.5165  0.5028  0.4176   Biso    0.0050 Au
 Au   1.0000  0.5359  0.5241  0.4172   Biso    0.0050 Au
 Au   1.0000  0.4990  0.4407  0.4171   Biso    0.0050 Au
 Au   1.0000  0.5184  0.4620  0.4166   Biso    0.0050 Au
 Au   1.0000  0.5378  0.4834  0.4162   Biso    0.0050 Au
 Au   1.0000  0.5572  0.5047  0.4157   Biso    0.0050 Au

